Version 4
SHEET 1 1600 680
WIRE -1424 -32 -1488 -32
WIRE -1280 -32 -1344 -32
WIRE -1248 -32 -1280 -32
WIRE -992 -32 -1168 -32
WIRE -944 -32 -992 -32
WIRE -592 -32 -656 -32
WIRE -592 -16 -592 -32
WIRE -1488 32 -1488 -32
WIRE -1280 32 -1280 -32
WIRE -992 64 -992 -32
WIRE -944 64 -992 64
WIRE -624 64 -656 64
WIRE -592 64 -592 48
WIRE -592 64 -624 64
WIRE -528 64 -592 64
WIRE -432 64 -448 64
WIRE -352 64 -432 64
WIRE -160 64 -352 64
WIRE -48 64 -160 64
WIRE -16 64 -48 64
WIRE 208 64 -16 64
WIRE -160 80 -160 64
WIRE -16 80 -16 64
WIRE 208 80 208 64
WIRE -352 112 -352 64
WIRE -1024 160 -1056 160
WIRE -944 160 -960 160
WIRE -432 160 -432 64
WIRE -432 160 -656 160
WIRE -1488 176 -1488 112
WIRE -1280 176 -1280 96
WIRE -1280 176 -1488 176
WIRE -160 176 -160 144
WIRE -16 176 -16 160
WIRE 208 176 208 160
WIRE 208 176 -16 176
WIRE -16 208 -16 176
WIRE -1280 240 -1280 176
WIRE -624 256 -656 256
WIRE -352 256 -352 192
WIRE -352 256 -624 256
WIRE -352 272 -352 256
WIRE -1024 352 -1072 352
WIRE -944 352 -1024 352
WIRE -352 384 -352 352
WIRE -1008 448 -1152 448
WIRE -944 448 -1008 448
WIRE -624 448 -656 448
WIRE -576 448 -624 448
WIRE -432 448 -432 160
WIRE -432 448 -496 448
WIRE -1152 496 -1152 448
WIRE -800 544 -800 496
WIRE -1152 640 -1152 576
FLAG -352 384 0
FLAG -160 176 0
FLAG -48 64 OUT
FLAG -1152 640 0
FLAG -624 448 PG
FLAG -624 256 FB
FLAG -624 64 SW
FLAG -1008 448 RT
FLAG -1024 352 TRSS
FLAG -800 544 0
FLAG -16 208 0
FLAG -1056 160 0
FLAG -1280 240 0
SYMBOL ind -544 80 R270
WINDOW 0 32 56 VTop 2
WINDOW 3 5 56 VBottom 2
SYMATTR InstName L1
SYMATTR Value 120µ
SYMATTR SpiceLine Rser=1
SYMBOL cap -176 80 R0
SYMATTR InstName C2
SYMATTR Value 50µ
SYMBOL res -368 256 R0
SYMATTR InstName R3
SYMATTR Value 301k
SYMBOL res -1168 480 R0
SYMATTR InstName R4
SYMATTR Value 110k
SYMBOL res -480 432 R90
WINDOW 0 0 56 VBottom 2
WINDOW 3 32 56 VTop 2
SYMATTR InstName R5
SYMATTR Value 100k
SYMBOL res -368 96 R0
SYMATTR InstName R6
SYMATTR Value 0.92Meg
SYMBOL res -32 64 R0
SYMATTR InstName Rload1
SYMATTR Value 300e3
SYMBOL cap -608 -16 R0
SYMATTR InstName C3
SYMATTR Value 47n
SYMBOL cap -960 144 R90
WINDOW 0 0 32 VBottom 2
WINDOW 3 32 32 VTop 2
SYMATTR InstName C4
SYMATTR Value 1µ
SYMBOL LT8604 -800 160 R0
SYMATTR InstName U1
SYMBOL Misc\\battery -1488 16 R0
WINDOW 123 0 0 Left 0
WINDOW 39 24 132 Left 2
SYMATTR SpiceLine Rser=35
SYMATTR InstName V1
SYMATTR Value 3.7
SYMBOL cap -1296 32 R0
SYMATTR InstName C5
SYMATTR Value 150µF
SYMBOL res -1328 -48 R90
WINDOW 0 0 56 VBottom 2
WINDOW 3 32 56 VTop 2
SYMATTR InstName R7
SYMATTR Value 2
SYMBOL res -1152 -48 R90
WINDOW 0 0 56 VBottom 2
WINDOW 3 32 56 VTop 2
SYMATTR InstName R8
SYMATTR Value 1.6
SYMBOL current 208 80 R0
WINDOW 123 0 0 Left 0
WINDOW 39 0 0 Left 0
SYMATTR InstName I2
SYMATTR Value PULSE(0 25ma 10ms 1u 1u 10s 13s 4)
TEXT 104 400 Left 2 !.tran 0 13s 0
